wedge-split_eals_inppr_XFEM.out
wedge-split tension test
#StaticStructuralarc nsteps 100 stepLength 0.5 minsteplength 5e-3 rtolf 1e-5 Psi 0.0 MaxIter 50 reqIterations 10 stiffmode 1 nmodules 1
StaticStructural nsteps 150 deltat 1.0 solverType 0 rtolf 1.0e-6 MaxIter 50 minIter 2 nmodules 1 manrmsteps 1 recomputeaftercrackprop
vtkxml tstep_all domain_all primvars 1 1 vars 3 1 13 117
#vtkxml tstep_all domain_all primvars 1 1 vars 3 1 13 117 ipVars 4 13 113 116 117 stype 2
domain 2dplanestress
OutputManager tstep_all dofman_all element_all
ndofman 1311 nelem 1236 ncrosssect 1 nmat 2 nbc 2 nic 0 nltf 2 nset 3 nxfemman 1 nbarrier 1
node 1 coords 2 -3.043152  20.000000
node 2 coords 2 -3.043152  70.000000
node 3 coords 2 -13.043152  70.000000
node 4 coords 2 -13.043152  20.000000
node 5 coords 2 -3.043152  0.000000
node 6 coords 2 -13.043152  0.000000
node 7 coords 2 -3.043152  130.000000
node 8 coords 2 -3.043152  180.000000
node 9 coords 2 -13.043152  180.000000
node 10 coords 2 -13.043152  130.000000
node 11 coords 2 -3.043152  200.000000
node 12 coords 2 -13.043152  200.000000
node 13 coords 2 16.956848  20.000000
node 14 coords 2 16.956848  70.000000
node 15 coords 2 16.956848  0.000000
node 16 coords 2 16.956848  130.000000
node 17 coords 2 16.956848  180.000000
node 18 coords 2 16.956848  200.000000
node 19 coords 2 101.956848  0.000000
node 20 coords 2 101.956848  70.000000
# ... 1291 like lines cut
#
#Totel 1311 nodes 
#PlaneStress2DXfem Elements
#
PlaneStress2DXfem 1 nodes 4 36 37 42 43 mat 1 crosssect 1 nip 4 nlgeo 0 czmaterial 2 nipcz 2 useplanestrain 1 
PlaneStress2DXfem 2 nodes 4 4 1 36 43 mat 1 crosssect 1 nip 4 nlgeo 0 czmaterial 2 nipcz 2 useplanestrain 1 
PlaneStress2DXfem 3 nodes 4 40 41 38 39 mat 1 crosssect 1 nip 4 nlgeo 0 czmaterial 2 nipcz 2 useplanestrain 1 
PlaneStress2DXfem 4 nodes 4 3 40 39 2 mat 1 crosssect 1 nip 4 nlgeo 0 czmaterial 2 nipcz 2 useplanestrain 1 
PlaneStress2DXfem 5 nodes 4 37 38 41 42 mat 1 crosssect 1 nip 4 nlgeo 0 czmaterial 2 nipcz 2 useplanestrain 1 
PlaneStress2DXfem 6 nodes 4 4 45 44 1 mat 1 crosssect 1 nip 4 nlgeo 0 czmaterial 2 nipcz 2 useplanestrain 1 
PlaneStress2DXfem 7 nodes 4 6 5 44 45 mat 1 crosssect 1 nip 4 nlgeo 0 czmaterial 2 nipcz 2 useplanestrain 1 
PlaneStress2DXfem 8 nodes 4 48 49 50 51 mat 1 crosssect 1 nip 4 nlgeo 0 czmaterial 2 nipcz 2 useplanestrain 1 
PlaneStress2DXfem 9 nodes 4 10 7 46 53 mat 1 crosssect 1 nip 4 nlgeo 0 czmaterial 2 nipcz 2 useplanestrain 1 
PlaneStress2DXfem 10 nodes 4 49 8 9 50 mat 1 crosssect 1 nip 4 nlgeo 0 czmaterial 2 nipcz 2 useplanestrain 1 
PlaneStress2DXfem 11 nodes 4 46 47 52 53 mat 1 crosssect 1 nip 4 nlgeo 0 czmaterial 2 nipcz 2 useplanestrain 1 
PlaneStress2DXfem 12 nodes 4 47 48 51 52 mat 1 crosssect 1 nip 4 nlgeo 0 czmaterial 2 nipcz 2 useplanestrain 1 
PlaneStress2DXfem 13 nodes 4 9 8 54 55 mat 1 crosssect 1 nip 4 nlgeo 0 czmaterial 2 nipcz 2 useplanestrain 1 
PlaneStress2DXfem 14 nodes 4 12 55 54 11 mat 1 crosssect 1 nip 4 nlgeo 0 czmaterial 2 nipcz 2 useplanestrain 1 
PlaneStress2DXfem 15 nodes 4 328 37 36 331 mat 1 crosssect 1 nip 4 nlgeo 0 czmaterial 2 nipcz 2 useplanestrain 1 
PlaneStress2DXfem 16 nodes 4 39 330 61 2 mat 1 crosssect 1 nip 4 nlgeo 0 czmaterial 2 nipcz 2 useplanestrain 1 
PlaneStress2DXfem 17 nodes 4 1 56 331 36 mat 1 crosssect 1 nip 4 nlgeo 0 czmaterial 2 nipcz 2 useplanestrain 1 
PlaneStress2DXfem 18 nodes 4 37 328 329 38 mat 1 crosssect 1 nip 4 nlgeo 0 czmaterial 2 nipcz 2 useplanestrain 1 
PlaneStress2DXfem 19 nodes 4 38 329 330 39 mat 1 crosssect 1 nip 4 nlgeo 0 czmaterial 2 nipcz 2 useplanestrain 1 
PlaneStress2DXfem 20 nodes 4 13 57 331 56 mat 1 crosssect 1 nip 4 nlgeo 0 czmaterial 2 nipcz 2 useplanestrain 1 
# ... 1213 like lines cut
#
#Totel 1234 elements 
TrPlaneStrain 1213 nodes 3 31 32 35 mat 1 crosssect 1 nip 3 nlgeo 0 
TrPlaneStrain 1235 nodes 3 33 35 34 mat 1 crosssect 1 nip 3 nlgeo 0 
TrPlaneStrain 1236 nodes 3 35 33 31 mat 1 crosssect 1 nip 3 nlgeo 0 
#
#Totel 1236 elements 
#
#
SimpleCS 1 thick 97.0 material 1
#
#local anisotropical damage
IsoLE 1 d 1.0 E 2.52e4 n 0.2 tAlpha 0.0
# adm1 1 E 2.52e4 n 0.2 kappa_t 3.525e-4 alpha_t 4.1e-4 kappa_c 5 alpha_c 5 eta 0.5 talpha 0.0 d 0.0
# admnl1 1 E 2.52e4 n 0.2 kappa_t 1.525e-4 alpha_t 2.5e-4 kappa_c 5 alpha_c 5 eta 0.5 talpha 0.0 d 0.0 r 16
# For cracked body
# intmatpprinadm1 2 alpha 7 beta 7 lambdan 0.001 lambdat 0.001 TotalG 1.01e-1
# For elastic body
intmatpprincz 2  phi1 1.01e-1 phi2 1.01e-1 sigm 3.3 taum 3.3 alpha 7 beta 7 lambdan 0.0001 lambdat 0.0001
# intmatpprexcz 2  phi1 1.01e-1 phi2 1.01e-1 sigm 3.3 taum 3.3 alpha 4 beta 4
#
polylinebarrier 1 points 4 30 100 101.956848 100
#
#BoundaryCondition 1 loadTimeFunction 1 dofs 2 1 2 values 2 0 0 set 3
BoundaryCondition 1 loadTimeFunction 2 dofs 2 1 2 values 2 0  0.25 set 2
BoundaryCondition 2 loadTimeFunction 2 dofs 2 1 2 values 2 0 -0.25 set 1
#NodalLoad  2 loadTimeFunction 1 dofs 1 2 Components 1 1.0 set 2
#NodalLoad  3 loadTimeFunction 1 dofs 1 2 Components 1 -1.0 set 3
#
ConstantFunction 1 f(t) 1.0
PiecewiseLinFunction 2 t 2 0.0 150.0 f(t) 2 0.0 1.0
Set 1 nodes 1 2
Set 2 nodes 1 7
Set 3 nodes 1 35
XfemStructureManager 1 numberofenrichmentitems 1 numberofgppertri 3 debugvtk 0 vtkexport 1 exportfields 3 2 3 4
crack 1 propagationlaw 1
HeavisideFunction 1
polygonline 1 points 4 30 100 101.956848 100
#propagationlawnonlocaldamage angleInc 1.0 incrementLength 3 damagethreshold 0.2 useradialbasisfunc 1
propagationLawnonlocalstress angleInc 1.0 incrementLength 3 hoopstressthreshold 3.3 useradialbasisfunc 1
